FoamFile
{
    version     2.0;
    format      ascii;
    class       dictionary;
    location    "constant";
    object      physicalProperties;
}
DT  DT [1 1 -3 -1 0 0 0] 1000.0;

