FoamFile
{
    version     2.0;
    format      ascii;
    class       dictionary;
    location    "system";
    object      blockMeshDict;
}

// 2D rectangle 0.3 m (x) by 0.4 m (y)
// 1 cell in z, with empty front/back patches

// In recent OpenFOAM versions use "scale" instead of "convertToMeters"
scale 1;

vertices
(
    (0     0     0)
    (0.3   0     0)
    (0.3   0.4   0)
    (0     0.4   0)
    (0     0     0.01)
    (0.3   0     0.01)
    (0.3   0.4   0.01)
    (0     0.4   0.01)
);

blocks
(
    hex (0 1 2 3 4 5 6 7) (30 40 1) simpleGrading (1 1 1)
);

edges
(
);

boundary
(
    west
    {
        type patch;
        faces
        (
            (0 3 7 4)
        );
    }

    east
    {
        type patch;
        faces
        (
            (1 5 6 2)
        );
    }

    south
    {
        type patch;
        faces
        (
            (0 1 5 4)
        );
    }

    north
    {
        type patch;
        faces
        (
            (3 2 6 7)
        );
    }

    frontAndBack
    {
        type empty;
        faces
        (
            (0 3 2 1)   // z = 0 plane (outward normal -z)
            (4 5 6 7)   // z = 0.01 plane (outward normal +z)
        );
    }
);

mergePatchPairs
(
);

