FoamFile
{
    version     2.0;
    format      ascii;
    class       volScalarField;
    location    "0";
    object      T;
}

dimensions      [0 0 0 1 0 0 0];

internalField   uniform 0;

boundaryField
{
    west
    {
        // Prescribed heat flux: fixed gradient.
        type            fixedGradient;
        gradient        uniform 500;
        value           uniform 0;
    }

    east
    {
        // Insulated: zero normal gradient
        type            zeroGradient;
    }

    south
    {
        // Insulated: zero normal gradient
        type            zeroGradient;
    }

    north
    {
        // Top boundary: fixed temperature 100°C
        type            fixedValue;
        value           uniform 100;
    }

    frontAndBack
    {
        type            empty;
    }
}
